Circuit: * C:\Users\ASHIJA\Desktop\PopnMusicController\LTSpice\led_circuit.asc

Direct Newton iteration for .op point succeeded.

Date: Sun Nov 11 16:14:48 2018
Total elapsed time: 0.029 seconds.

tnom = 27
temp = 27
method = modified trap
totiter = 2483
traniter = 2476
tranpoints = 1161
accept = 1128
rejected = 33
matrix size = 8
fillins = 0
solver = Normal
Matrix Compiler1: 344 bytes object code size  0.1/0.0/[0.0]
Matrix Compiler2: 594 bytes object code size  0.1/0.1/[0.0]

