Circuit: * C:\Users\ASHIJA\Desktop\PopnMusicController\LTSpice\led_circuit.asc

Direct Newton iteration for .op point succeeded.

Date: Sun Dec 23 01:44:19 2018
Total elapsed time: 0.038 seconds.

tnom = 27
temp = 27
method = modified trap
totiter = 2483
traniter = 2476
tranpoints = 1161
accept = 1128
rejected = 33
matrix size = 8
fillins = 0
solver = Normal
Matrix Compiler1: 344 bytes object code size  0.1/0.0/[0.0]
Matrix Compiler2: off  [0.0]/0.1/0.0

